grid/case.raw
0,   100.00, 33, 0, 0, 60.00     / PSS(R)E 33 RAW created by rawd33  MON, SEP 25 2023   3:01
GRID OPTIMIZATION COMPETITION
INPUT DATA FILES ARE RAW ROP INL CON
     1,'            ', 138.0000,1,   1,   1,   1,1.02302, -33.6062,1.10000,0.90000,1.10000,0.90000
     2,'            ',  69.0000,1,   1,   1,   1,1.03181, -36.7856,1.10000,0.90000,1.10000,0.90000
     3,'            ', 138.0000,1,   1,   1,   1,1.02239, -33.6501,1.10000,0.90000,1.10000,0.90000
     4,'            ',  69.0000,1,   1,   1,   1,1.03253, -39.4073,1.10000,0.90000,1.10000,0.90000
     5,'            ',  69.0000,1,   1,   1,   1,1.03123, -39.1491,1.10000,0.90000,1.10000,0.90000
     6,'            ',  69.0000,1,   1,   1,   1,1.01256, -39.3488,1.10000,0.90000,1.10000,0.90000
     7,'            ', 138.0000,1,   1,   1,   1,1.00954, -35.1060,1.10000,0.90000,1.10000,0.90000
     8,'            ',  69.0000,1,   1,   1,   1,1.03950, -40.9658,1.10000,0.90000,1.10000,0.90000
     9,'            ', 138.0000,1,   1,   1,   1,1.00856, -35.2196,1.10000,0.90000,1.10000,0.90000
    10,'            ',  69.0000,1,   1,   1,   1,1.02457, -39.5222,1.10000,0.90000,1.10000,0.90000
    11,'            ', 138.0000,1,   1,   1,   1,1.00793, -35.2866,1.10000,0.90000,1.10000,0.90000
    12,'            ', 138.0000,1,   1,   1,   1,1.01006, -35.3536,1.10000,0.90000,1.10000,0.90000
    13,'            ',  69.0000,1,   1,   1,   1,1.01247, -39.8589,1.10000,0.90000,1.10000,0.90000
    14,'            ', 138.0000,1,   1,   1,   1,1.01015, -35.3273,1.10000,0.90000,1.10000,0.90000
    15,'            ', 138.0000,1,   1,   1,   1,1.00989, -35.3994,1.10000,0.90000,1.10000,0.90000
    16,'            ',  69.0000,1,   1,   1,   1,1.03684, -37.1822,1.10000,0.90000,1.10000,0.90000
    17,'            ',  69.0000,1,   1,   1,   1,1.00079, -38.3692,1.10000,0.90000,1.10000,0.90000
    18,'            ',  69.0000,1,   1,   1,   1,1.01640, -38.2817,1.10000,0.90000,1.10000,0.90000
    19,'            ',  69.0000,1,   1,   1,   1,1.01631, -38.2952,1.10000,0.90000,1.10000,0.90000
    20,'            ', 138.0000,1,   1,   1,   1,1.01289, -34.7409,1.10000,0.90000,1.10000,0.90000
    21,'            ',  69.0000,1,   1,   1,   1,1.04074, -37.9190,1.10000,0.90000,1.10000,0.90000
    22,'            ', 138.0000,1,   1,   1,   1,1.01404, -34.6358,1.10000,0.90000,1.10000,0.90000
    23,'            ',  69.0000,1,   1,   1,   1,1.03009, -37.5892,1.10000,0.90000,1.10000,0.90000
    24,'            ',  69.0000,1,   1,   1,   1,1.02410, -36.8626,1.10000,0.90000,1.10000,0.90000
    25,'            ',  69.0000,1,   1,   1,   1,1.02400, -36.8772,1.10000,0.90000,1.10000,0.90000
    26,'            ', 138.0000,1,   1,   1,   1,1.01080, -34.7731,1.10000,0.90000,1.10000,0.90000
    27,'            ',  69.0000,1,   1,   1,   1,1.02947, -38.0393,1.10000,0.90000,1.10000,0.90000
    28,'            ', 138.0000,1,   1,   1,   1,1.01078, -34.7496,1.10000,0.90000,1.10000,0.90000
    29,'            ',  69.0000,1,   1,   1,   1,1.03924, -35.7366,1.10000,0.90000,1.10000,0.90000
    30,'            ', 138.0000,1,   1,   1,   1,1.01464, -34.7003,1.10000,0.90000,1.10000,0.90000
    31,'            ', 138.0000,1,   1,   1,   1,1.01211, -34.7905,1.10000,0.90000,1.10000,0.90000
    32,'            ',  69.0000,1,   1,   1,   1,1.00760, -37.1096,1.10000,0.90000,1.10000,0.90000
    33,'            ', 138.0000,1,   1,   1,   1,1.01173, -34.8348,1.10000,0.90000,1.10000,0.90000
    34,'            ', 138.0000,1,   1,   1,   1,1.01593, -33.6856,1.10000,0.90000,1.10000,0.90000
    35,'            ',  69.0000,1,   1,   1,   1,1.03564, -37.0440,1.10000,0.90000,1.10000,0.90000
    36,'            ',  69.0000,1,   1,   1,   1,1.04497, -36.1408,1.10000,0.90000,1.10000,0.90000
    37,'            ',  69.0000,1,   1,   1,   1,1.03432, -37.6792,1.10000,0.90000,1.10000,0.90000
    38,'            ',  69.0000,1,   1,   1,   1,1.03531, -38.8796,1.10000,0.90000,1.10000,0.90000
    39,'            ', 138.0000,1,   1,   1,   1,1.01945, -31.7662,1.10000,0.90000,1.10000,0.90000
    40,'            ',  69.0000,1,   1,   1,   1,1.02917, -34.1077,1.10000,0.90000,1.10000,0.90000
    41,'            ',  69.0000,1,   1,   1,   1,1.02037, -36.2001,1.10000,0.90000,1.10000,0.90000
    42,'            ', 138.0000,1,   1,   1,   1,1.01347, -34.8870,1.10000,0.90000,1.10000,0.90000
    43,'            ',  69.0000,1,   1,   1,   1,1.01375, -37.9470,1.10000,0.90000,1.10000,0.90000
    44,'            ', 138.0000,1,   1,   1,   1,1.01270, -34.9381,1.10000,0.90000,1.10000,0.90000
    45,'            ',  69.0000,1,   1,   1,   1,0.99117, -39.0816,1.10000,0.90000,1.10000,0.90000
    46,'            ',  69.0000,1,   1,   1,   1,1.00437, -38.4652,1.10000,0.90000,1.10000,0.90000
    47,'            ', 345.0000,1,   1,   1,   1,1.03216, -27.0102,1.10000,0.90000,1.10000,0.90000
    48,'            ', 138.0000,1,   1,   1,   1,1.04584, -28.6856,1.10000,0.90000,1.10000,0.90000
    49,'            ',  69.0000,1,   1,   1,   1,1.04657, -31.4644,1.10000,0.90000,1.10000,0.90000
    50,'            ', 345.0000,1,   1,   1,   1,1.03181, -27.0378,1.10000,0.90000,1.10000,0.90000
    51,'            ',  69.0000,1,   1,   1,   1,1.01035, -35.2768,1.10000,0.90000,1.10000,0.90000
    52,'            ', 345.0000,1,   1,   1,   1,1.03354, -28.3565,1.10000,0.90000,1.10000,0.90000
    53,'            ', 138.0000,1,   1,   1,   1,1.02389, -31.9908,1.10000,0.90000,1.10000,0.90000
    54,'            ', 345.0000,1,   1,   1,   1,1.03303, -28.4071,1.10000,0.90000,1.10000,0.90000
    55,'            ', 138.0000,1,   1,   1,   1,1.03752, -29.4830,1.10000,0.90000,1.10000,0.90000
    56,'            ',  69.0000,1,   1,   1,   1,1.03877, -33.4083,1.10000,0.90000,1.10000,0.90000
    57,'            ', 138.0000,1,   1,   1,   1,1.03732, -29.5123,1.10000,0.90000,1.10000,0.90000
    58,'            ',  69.0000,1,   1,   1,   1,1.03066, -34.7106,1.10000,0.90000,1.10000,0.90000
    59,'            ',  69.0000,1,   1,   1,   1,1.04189, -30.2832,1.10000,0.90000,1.10000,0.90000
    60,'            ',  69.0000,1,   1,   1,   1,1.04106, -30.9699,1.10000,0.90000,1.10000,0.90000
    61,'            ',  69.0000,1,   1,   1,   1,1.02885, -33.3420,1.10000,0.90000,1.10000,0.90000
    62,'            ',  69.0000,1,   1,   1,   1,1.04074, -31.8890,1.10000,0.90000,1.10000,0.90000
    63,'            ', 138.0000,1,   1,   1,   1,1.00950, -30.8233,1.10000,0.90000,1.10000,0.90000
    64,'            ',  69.0000,1,   1,   1,   1,1.04318, -32.2915,1.10000,0.90000,1.10000,0.90000
    65,'            ', 138.0000,1,   1,   1,   1,1.00932, -30.8347,1.10000,0.90000,1.10000,0.90000
    66,'            ',  69.0000,1,   1,   1,   1,1.03634, -31.2528,1.10000,0.90000,1.10000,0.90000
    67,'            ', 138.0000,1,   1,   1,   1,1.01707, -29.7472,1.10000,0.90000,1.10000,0.90000
    68,'            ',  69.0000,1,   1,   1,   1,1.05039, -29.9120,1.10000,0.90000,1.10000,0.90000
    69,'            ', 138.0000,1,   1,   1,   1,1.01697, -29.7537,1.10000,0.90000,1.10000,0.90000
    70,'            ',  69.0000,1,   1,   1,   1,1.04490, -30.6901,1.10000,0.90000,1.10000,0.90000
    71,'            ', 138.0000,1,   1,   1,   1,1.02741, -29.6343,1.10000,0.90000,1.10000,0.90000
    72,'            ',  69.0000,1,   1,   1,   1,1.05146, -30.1984,1.10000,0.90000,1.10000,0.90000
    73,'            ', 138.0000,1,   1,   1,   1,1.02725, -29.6497,1.10000,0.90000,1.10000,0.90000
    74,'            ',  69.0000,1,   1,   1,   1,1.03350, -27.4462,1.10000,0.90000,1.10000,0.90000
    75,'            ',  69.0000,1,   1,   1,   1,1.03181, -26.9526,1.10000,0.90000,1.10000,0.90000
    76,'            ', 138.0000,1,   1,   1,   1,1.03213, -27.4265,1.10000,0.90000,1.10000,0.90000
    77,'            ',  69.0000,1,   1,   1,   1,1.03356, -27.0824,1.10000,0.90000,1.10000,0.90000
    78,'            ', 138.0000,1,   1,   1,   1,1.03198, -27.4459,1.10000,0.90000,1.10000,0.90000
    79,'            ', 138.0000,1,   1,   1,   1,1.02937, -27.4675,1.10000,0.90000,1.10000,0.90000
    80,'            ',  69.0000,1,   1,   1,   1,1.04727, -26.8768,1.10000,0.90000,1.10000,0.90000
    81,'            ', 138.0000,1,   1,   1,   1,1.02931, -27.4748,1.10000,0.90000,1.10000,0.90000
    82,'            ',  69.0000,1,   1,   1,   1,1.04733, -27.6418,1.10000,0.90000,1.10000,0.90000
    83,'            ', 138.0000,1,   1,   1,   1,1.02011, -29.2322,1.10000,0.90000,1.10000,0.90000
    84,'            ', 138.0000,1,   1,   1,   1,1.02011, -29.2322,1.10000,0.90000,1.10000,0.90000
    85,'            ', 138.0000,1,   1,   1,   1,1.02011, -29.2322,1.10000,0.90000,1.10000,0.90000
    86,'            ', 138.0000,1,   1,   1,   1,1.01922, -34.0491,1.10000,0.90000,1.10000,0.90000
    87,'            ',  69.0000,1,   1,   1,   1,1.04302, -36.8462,1.10000,0.90000,1.10000,0.90000
    88,'            ', 138.0000,1,   1,   1,   1,1.01882, -34.0921,1.10000,0.90000,1.10000,0.90000
    89,'            ', 138.0000,1,   1,   1,   1,1.02841, -30.0159,1.10000,0.90000,1.10000,0.90000
    90,'            ',  69.0000,1,   1,   1,   1,1.03560, -32.9878,1.10000,0.90000,1.10000,0.90000
    91,'            ', 138.0000,1,   1,   1,   1,1.02798, -30.0743,1.10000,0.90000,1.10000,0.90000
    92,'            ',  69.0000,1,   1,   1,   1,1.02809, -31.9088,1.10000,0.90000,1.10000,0.90000
    93,'            ',  69.0000,1,   1,   1,   1,1.03650, -32.4343,1.10000,0.90000,1.10000,0.90000
    94,'            ',  69.0000,1,   1,   1,   1,1.02710, -32.2336,1.10000,0.90000,1.10000,0.90000
    95,'            ',  69.0000,1,   1,   1,   1,1.04150, -31.7377,1.10000,0.90000,1.10000,0.90000
    96,'            ', 345.0000,1,   1,   1,   1,1.02983, -24.5418,1.10000,0.90000,1.10000,0.90000
    97,'            ', 138.0000,1,   1,   1,   1,1.03499, -28.8282,1.10000,0.90000,1.10000,0.90000
    98,'            ',  69.0000,1,   1,   1,   1,1.04158, -31.7949,1.10000,0.90000,1.10000,0.90000
    99,'            ', 138.0000,1,   1,   1,   1,1.03357, -29.0445,1.10000,0.90000,1.10000,0.90000
   100,'            ', 138.0000,1,   1,   1,   1,1.03045, -30.7120,1.10000,0.90000,1.10000,0.90000
   101,'            ',  69.0000,1,   1,   1,   1,1.04041, -33.5365,1.10000,0.90000,1.10000,0.90000
   102,'            ', 138.0000,1,   1,   1,   1,1.02986, -30.7829,1.10000,0.90000,1.10000,0.90000
   103,'            ',  69.0000,1,   1,   1,   1,1.03626, -32.3069,1.10000,0.90000,1.10000,0.90000
   104,'            ',  69.0000,1,   1,   1,   1,1.03422, -32.7200,1.10000,0.90000,1.10000,0.90000
   105,'            ', 345.0000,1,   1,   1,   1,1.03950, -23.4951,1.10000,0.90000,1.10000,0.90000
   106,'            ', 138.0000,1,   1,   1,   1,1.03407, -26.9771,1.10000,0.90000,1.10000,0.90000
   107,'            ',  69.0000,1,   1,   1,   1,1.04296, -30.4494,1.10000,0.90000,1.10000,0.90000
   108,'            ', 345.0000,1,   1,   1,   1,1.03890, -23.5514,1.10000,0.90000,1.10000,0.90000
   109,'            ',  69.0000,1,   1,   1,   1,1.01822, -33.5317,1.10000,0.90000,1.10000,0.90000
   110,'            ', 138.0000,1,   1,   1,   1,1.03436, -30.5232,1.10000,0.90000,1.10000,0.90000
   111,'            ',  69.0000,1,   1,   1,   1,1.04106, -31.4016,1.10000,0.90000,1.10000,0.90000
   112,'            ', 138.0000,1,   1,   1,   1,1.03390, -30.5787,1.10000,0.90000,1.10000,0.90000
   113,'            ',  69.0000,1,   1,   1,   1,1.02192, -35.0181,1.10000,0.90000,1.10000,0.90000
   114,'            ',  69.0000,1,   1,   1,   1,1.03450, -30.0052,1.10000,0.90000,1.10000,0.90000
   115,'            ',  69.0000,1,   1,   1,   1,1.03406, -32.0093,1.10000,0.90000,1.10000,0.90000
   116,'            ',  69.0000,1,   1,   1,   1,1.03756, -33.2267,1.10000,0.90000,1.10000,0.90000
   117,'            ',  69.0000,1,   1,   1,   1,1.02217, -31.3379,1.10000,0.90000,1.10000,0.90000
   118,'            ',  69.0000,1,   1,   1,   1,1.02557, -32.0559,1.10000,0.90000,1.10000,0.90000
   119,'            ',  69.0000,1,   1,   1,   1,1.02709, -39.2249,1.10000,0.90000,1.10000,0.90000
   120,'            ',  69.0000,1,   1,   1,   1,1.02009, -39.4130,1.10000,0.90000,1.10000,0.90000
   121,'            ', 138.0000,1,   1,   1,   1,0.99097, -37.7860,1.10000,0.90000,1.10000,0.90000
   122,'            ',  69.0000,1,   1,   1,   1,1.02278, -38.3467,1.10000,0.90000,1.10000,0.90000
   123,'            ', 138.0000,1,   1,   1,   1,0.99032, -37.8542,1.10000,0.90000,1.10000,0.90000
   124,'            ', 138.0000,1,   1,   1,   1,0.99477, -38.6359,1.10000,0.90000,1.10000,0.90000
   125,'            ',  69.0000,1,   1,   1,   1,1.00999, -40.1071,1.10000,0.90000,1.10000,0.90000
   126,'            ', 138.0000,1,   1,   1,   1,0.99429, -38.6755,1.10000,0.90000,1.10000,0.90000
   127,'            ',  69.0000,1,   1,   1,   1,1.03252, -37.6693,1.10000,0.90000,1.10000,0.90000
   128,'            ',  69.0000,1,   1,   1,   1,1.03850, -39.7767,1.10000,0.90000,1.10000,0.90000
   129,'            ',  69.0000,1,   1,   1,   1,1.02649, -38.3871,1.10000,0.90000,1.10000,0.90000
   130,'            ',  69.0000,1,   1,   1,   1,1.02608, -38.4463,1.10000,0.90000,1.10000,0.90000
   131,'            ',  69.0000,1,   1,   1,   1,1.03750, -42.5318,1.10000,0.90000,1.10000,0.90000
   132,'            ', 138.0000,1,   1,   1,   1,0.99680, -38.7649,1.10000,0.90000,1.10000,0.90000
   133,'            ',  69.0000,1,   1,   1,   1,1.01264, -41.2627,1.10000,0.90000,1.10000,0.90000
   134,'            ', 138.0000,1,   1,   1,   1,0.99665, -38.6935,1.10000,0.90000,1.10000,0.90000
   135,'            ', 138.0000,1,   1,   1,   1,0.99593, -36.5811,1.10000,0.90000,1.10000,0.90000
   136,'            ',  69.0000,1,   1,   1,   1,1.02936, -39.0052,1.10000,0.90000,1.10000,0.90000
   137,'            ', 138.0000,1,   1,   1,   1,0.99522, -36.6844,1.10000,0.90000,1.10000,0.90000
   138,'            ',  69.0000,1,   1,   1,   1,1.02995, -39.0873,1.10000,0.90000,1.10000,0.90000
   139,'            ', 138.0000,1,   1,   1,   1,0.99157, -37.4783,1.10000,0.90000,1.10000,0.90000
   140,'            ',  69.0000,1,   1,   1,   1,1.00858, -41.0851,1.10000,0.90000,1.10000,0.90000
   141,'            ', 138.0000,1,   1,   1,   1,0.99190, -37.4561,1.10000,0.90000,1.10000,0.90000
   142,'            ', 138.0000,1,   1,   1,   1,0.99639, -36.8836,1.10000,0.90000,1.10000,0.90000
   143,'            ',  69.0000,1,   1,   1,   1,1.02384, -38.7349,1.10000,0.90000,1.10000,0.90000
   144,'            ', 138.0000,1,   1,   1,   1,0.99594, -36.9503,1.10000,0.90000,1.10000,0.90000
   145,'            ',  69.0000,1,   1,   1,   1,1.03083, -38.0920,1.10000,0.90000,1.10000,0.90000
   146,'            ',  69.0000,1,   1,   1,   1,1.03254, -39.7091,1.10000,0.90000,1.10000,0.90000
   147,'            ', 138.0000,1,   1,   1,   1,0.99843, -35.9948,1.10000,0.90000,1.10000,0.90000
   148,'            ',  69.0000,1,   1,   1,   1,1.03140, -38.1582,1.10000,0.90000,1.10000,0.90000
   149,'            ', 138.0000,1,   1,   1,   1,0.99792, -36.0589,1.10000,0.90000,1.10000,0.90000
   150,'            ',  69.0000,1,   1,   1,   1,1.02237, -39.6157,1.10000,0.90000,1.10000,0.90000
   151,'            ', 138.0000,1,   1,   1,   1,1.00230, -36.1592,1.10000,0.90000,1.10000,0.90000
   152,'            ',  69.0000,1,   1,   1,   1,1.03615, -38.8579,1.10000,0.90000,1.10000,0.90000
   153,'            ', 138.0000,1,   1,   1,   1,1.00200, -36.2093,1.10000,0.90000,1.10000,0.90000
   154,'            ',  69.0000,1,   1,   1,   1,1.02030, -39.9306,1.10000,0.90000,1.10000,0.90000
   155,'            ',  69.0000,1,   1,   1,   1,1.03440, -37.2216,1.10000,0.90000,1.10000,0.90000
   156,'            ',  69.0000,1,   1,   1,   1,1.03140, -38.2580,1.10000,0.90000,1.10000,0.90000
   157,'            ', 138.0000,1,   1,   1,   1,1.00841, -34.0570,1.10000,0.90000,1.10000,0.90000
   158,'            ', 138.0000,1,   1,   1,   1,1.01129, -33.6480,1.10000,0.90000,1.10000,0.90000
   159,'            ', 345.0000,1,   1,   1,   1,1.03650, -29.2923,1.10000,0.90000,1.10000,0.90000
   160,'            ', 138.0000,1,   1,   1,   1,1.03064, -31.1076,1.10000,0.90000,1.10000,0.90000
   161,'            ',  69.0000,1,   1,   1,   1,1.03105, -34.6897,1.10000,0.90000,1.10000,0.90000
   162,'            ', 138.0000,1,   1,   1,   1,1.02859, -31.3139,1.10000,0.90000,1.10000,0.90000
   163,'            ',  69.0000,1,   1,   1,   1,1.03659, -36.1314,1.10000,0.90000,1.10000,0.90000
   164,'            ',  69.0000,1,   1,   1,   1,1.02515, -39.6533,1.10000,0.90000,1.10000,0.90000
   165,'            ', 138.0000,1,   1,   1,   1,0.99481, -35.9674,1.10000,0.90000,1.10000,0.90000
   166,'            ',  69.0000,1,   1,   1,   1,1.03388, -38.6061,1.10000,0.90000,1.10000,0.90000
   167,'            ', 138.0000,1,   1,   1,   1,0.99325, -36.0572,1.10000,0.90000,1.10000,0.90000
   168,'            ',  69.0000,1,   1,   1,   1,1.02835, -39.1808,1.10000,0.90000,1.10000,0.90000
   169,'            ',  69.0000,1,   1,   1,   1,1.03550, -39.3506,1.10000,0.90000,1.10000,0.90000
   170,'            ', 138.0000,1,   1,   1,   1,0.99979, -36.4644,1.10000,0.90000,1.10000,0.90000
   171,'            ',  69.0000,1,   1,   1,   1,1.03642, -39.0685,1.10000,0.90000,1.10000,0.90000
   172,'            ', 138.0000,1,   1,   1,   1,0.99938, -36.5099,1.10000,0.90000,1.10000,0.90000
   173,'            ',  69.0000,1,   1,   1,   1,1.04150, -40.0524,1.10000,0.90000,1.10000,0.90000
   174,'            ', 138.0000,1,   1,   1,   1,1.00733, -35.1119,1.10000,0.90000,1.10000,0.90000
   175,'            ',  69.0000,1,   1,   1,   1,1.04227, -37.6986,1.10000,0.90000,1.10000,0.90000
   176,'            ', 138.0000,1,   1,   1,   1,1.00698, -35.1632,1.10000,0.90000,1.10000,0.90000
   177,'            ',  69.0000,1,   1,   1,   1,1.04050, -38.4276,1.10000,0.90000,1.10000,0.90000
   178,'            ',  69.0000,1,   1,   1,   1,1.03350, -36.9372,1.10000,0.90000,1.10000,0.90000
   179,'            ',  69.0000,1,   1,   1,   1,1.03475, -37.7168,1.10000,0.90000,1.10000,0.90000
   180,'            ',  69.0000,1,   1,   1,   1,1.03519, -37.4864,1.10000,0.90000,1.10000,0.90000
   181,'            ', 138.0000,1,   1,   1,   1,1.00348, -36.0216,1.10000,0.90000,1.10000,0.90000
   182,'            ',  69.0000,1,   1,   1,   1,1.02476, -39.2081,1.10000,0.90000,1.10000,0.90000
   183,'            ', 138.0000,1,   1,   1,   1,1.00298, -36.0779,1.10000,0.90000,1.10000,0.90000
   184,'            ',  69.0000,1,   1,   1,   1,1.03062, -38.4019,1.10000,0.90000,1.10000,0.90000
   185,'            ',  69.0000,1,   1,   1,   1,1.02699, -39.1082,1.10000,0.90000,1.10000,0.90000
   186,'            ',  69.0000,1,   1,   1,   1,1.04050, -37.0247,1.10000,0.90000,1.10000,0.90000
   187,'            ',  69.0000,1,   1,   1,   1,1.01514, -39.6585,1.10000,0.90000,1.10000,0.90000
   188,'            ', 138.0000,1,   1,   1,   1,1.03016, -34.7036,1.10000,0.90000,1.10000,0.90000
   189,'            ',  69.0000,1,   1,   1,   1,1.04633, -36.6472,1.10000,0.90000,1.10000,0.90000
   190,'            ', 138.0000,1,   1,   1,   1,1.02984, -34.7440,1.10000,0.90000,1.10000,0.90000
   191,'            ', 138.0000,1,   1,   1,   1,1.00613, -34.4098,1.10000,0.90000,1.10000,0.90000
   192,'            ',  69.0000,1,   1,   1,   1,1.04013, -37.3119,1.10000,0.90000,1.10000,0.90000
   193,'            ', 138.0000,1,   1,   1,   1,1.00788, -34.2184,1.10000,0.90000,1.10000,0.90000
   194,'            ', 138.0000,1,   1,   1,   1,1.00408, -34.8124,1.10000,0.90000,1.10000,0.90000
   195,'            ',  69.0000,1,   1,   1,   1,1.04227, -37.0427,1.10000,0.90000,1.10000,0.90000
   196,'            ', 138.0000,1,   1,   1,   1,1.00383, -34.8491,1.10000,0.90000,1.10000,0.90000
   197,'            ',  69.0000,1,   1,   1,   1,1.03202, -37.2036,1.10000,0.90000,1.10000,0.90000
   198,'            ',  69.0000,1,   1,   1,   1,1.03227, -37.1751,1.10000,0.90000,1.10000,0.90000
   199,'            ',  69.0000,1,   1,   1,   1,1.03950, -36.5299,1.10000,0.90000,1.10000,0.90000
   200,'            ',  69.0000,1,   1,   1,   1,1.02418, -35.1718,1.10000,0.90000,1.10000,0.90000
...
0 / END OF BUS DATA, BEGIN LOAD DATA
     3,'1 ',0,   1,   1,    87.785,    42.476,     0.000,     0.000,     0.000,     0.000,   1,1,0
     4,'1 ',0,   1,   1,    56.190,     3.786,     0.000,     0.000,     0.000,     0.000,   1,1,0
     5,'1 ',0,   1,   1,    75.437,    37.132,     0.000,     0.000,     0.000,     0.000,   1,1,0
     6,'1 ',0,   1,   1,    88.795,     7.198,     0.000,     0.000,     0.000,     0.000,   1,1,0
     7,'1 ',0,   1,   1,    80.825,    17.385,     0.000,     0.000,     0.000,     0.000,   1,1,0
     8,'1 ',0,   1,   1,    57.295,    14.990,     0.000,     0.000,     0.000,     0.000,   1,1,0
    11,'1 ',0,   1,   1,   106.206,    34.894,     0.000,     0.000,     0.000,     0.000,   1,1,0
    13,'1 ',0,   1,   1,   118.537,    25.386,     0.000,     0.000,     0.000,     0.000,   1,1,0
    15,'1 ',0,   1,   1,   151.962,    73.847,     0.000,     0.000,     0.000,     0.000,   1,1,0
    16,'1 ',0,   1,   1,    71.345,    13.848,     0.000,     0.000,     0.000,     0.000,   1,1,0
    17,'1 ',0,   1,   1,    67.064,    39.699,     0.000,     0.000,     0.000,     0.000,   1,1,0
    19,'1 ',0,   1,   1,    23.136,     2.622,     0.000,     0.000,     0.000,     0.000,   1,1,0
    21,'1 ',0,   1,   1,   139.415,    17.081,     0.000,     0.000,     0.000,     0.000,   1,1,0
    23,'1 ',0,   1,   1,    74.520,    10.997,     0.000,     0.000,     0.000,     0.000,   1,1,0
    24,'1 ',0,   1,   1,    16.482,     3.646,     0.000,     0.000,     0.000,     0.000,   1,1,0
    25,'1 ',0,   1,   1,    25.035,     2.990,     0.000,     0.000,     0.000,     0.000,   1,1,0
    27,'1 ',0,   1,   1,    94.368,    25.039,     0.000,     0.000,     0.000,     0.000,   1,1,0
    29,'1 ',0,   1,   1,   106.116,    41.432,     0.000,     0.000,     0.000,     0.000,   1,1,0
    30,'1 ',1,   1,   1,    87.631,     1.950,     0.000,     0.000,     0.000,     0.000,   1,1,0
    33,'1 ',1,   1,   1,    69.765,    16.119,     0.000,     0.000,     0.000,     0.000,   1,1,0
    34,'1 ',1,   1,   1,    75.845,    20.537,     0.000,     0.000,     0.000,     0.000,   1,1,0
    35,'1 ',1,   1,   1,    77.265,    14.389,     0.000,     0.000,     0.000,     0.000,   1,1,0
    36,'1 ',1,   1,   1,    56.330,     6.341,     0.000,     0.000,     0.000,     0.000,   1,1,0
    37,'1 ',1,   1,   1,    97.467,    11.015,     0.000,     0.000,     0.000,     0.000,   1,1,0
    38,'1 ',1,   1,   1,    27.358,     6.845,     0.000,     0.000,     0.000,     0.000,   1,1,0
    40,'1 ',1,   1,   1,    81.830,    45.148,     0.000,     0.000,     0.000,     0.000,   1,1,0
    41,'1 ',1,   1,   1,    42.848,    14.334,     0.000,     0.000,     0.000,     0.000,   1,1,0
    44,'1 ',1,   1,   1,    94.242,    53.396,     0.000,     0.000,     0.000,     0.000,   1,1,0
    45,'1 ',1,   1,   1,    30.755,     5.752,     0.000,     0.000,     0.000,     0.000,   1,1,0
    46,'1 ',1,   1,   1,    34.088,     6.411,     0.000,     0.000,     0.000,     0.000,   1,1,0
    50,'1 ',1,   1,   1,    51.744,    22.027,     0.000,     0.000,     0.000,     0.000,   1,1,0
    51,'1 ',1,   1,   1,    41.380,    21.388,     0.000,     0.000,     0.000,     0.000,   1,1,0
    54,'1 ',1,   1,   1,    99.164,    31.985,     0.000,     0.000,     0.000,     0.000,   1,1,0
    57,'1 ',1,   1,   1,    55.971,     4.117,     0.000,     0.000,     0.000,     0.000,   1,1,0
    58,'1 ',1,   1,   1,    44.791,    18.060,     0.000,     0.000,     0.000,     0.000,   1,1,0
    59,'1 ',1,   1,   1,    32.823,    11.134,     0.000,     0.000,     0.000,     0.000,   1,1,0
    60,'1 ',1,   1,   1,    23.559,     0.755,     0.000,     0.000,     0.000,     0.000,   1,1,0
    61,'1 ',1,   1,   1,    10.492,     3.192,     0.000,     0.000,     0.000,     0.000,   1,1,0
    62,'1 ',1,   1,   1,    11.041,     7.041,     0.000,     0.000,     0.000,     0.000,   1,1,0
    65,'1 ',1,   1,   1,    22.194,    11.568,     0.000,     0.000,     0.000,     0.000,   1,1,0
    66,'1 ',1,   1,   1,     9.970,     3.812,     0.000,     0.000,     0.000,     0.000,   1,1,0
    69,'1 ',1,   1,   1,    12.215,     6.471,     0.000,     0.000,     0.000,     0.000,   1,1,0
    70,'1 ',1,   1,   1,     8.982,     0.767,     0.000,     0.000,     0.000,     0.000,   1,1,0
    72,'1 ',1,   1,   1,    16.972,     5.662,     0.000,     0.000,     0.000,     0.000,   1,1,0
    74,'1 ',1,   1,   1,    19.507,     1.606,     0.000,     0.000,     0.000,     0.000,   1,1,0
    75,'1 ',1,   1,   1,    17.388,     5.680,     0.000,     0.000,     0.000,     0.000,   1,1,0
    78,'1 ',1,   1,   1,    35.278,     6.243,     0.000,     0.000,     0.000,     0.000,   1,1,0
    81,'1 ',1,   1,   1,    13.110,     2.478,     0.000,     0.000,     0.000,     0.000,   1,1,0
    82,'1 ',1,   1,   1,     9.736,     0.642,     0.000,     0.000,     0.000,     0.000,   1,1,0
    84,'1 ',1,   1,   1,    21.699,     6.975,     0.000,     0.000,     0.000,     0.000,   1,1,0
    88,'1 ',1,   1,   1,    76.839,    18.681,     0.000,     0.000,     0.000,     0.000,   1,1,0
    91,'1 ',1,   1,   1,    99.171,    15.924,     0.000,     0.000,     0.000,     0.000,   1,1,0
    92,'1 ',1,   1,   1,    40.202,    19.435,     0.000,     0.000,     0.000,     0.000,   1,1,0
    93,'1 ',1,   1,   1,    23.763,     5.553,     0.000,     0.000,     0.000,     0.000,   1,1,0
    94,'1 ',1,   1,   1,    24.499,     4.115,     0.000,     0.000,     0.000,     0.000,   1,1,0
    95,'1 ',1,   1,   1,    69.307,    18.381,     0.000,     0.000,     0.000,     0.000,   1,1,0
    99,'1 ',1,   1,   1,    98.734,    36.643,     0.000,     0.000,     0.000,     0.000,   1,1,0
   102,'1 ',1,   1,   1,   136.332,    19.881,     0.000,     0.000,     0.000,     0.000,   1,1,0
   103,'1 ',1,   1,   1,    49.457,     2.314,     0.000,     0.000,     0.000,     0.000,   1,1,0
   104,'1 ',1,   1,   1,    72.799,    25.958,     0.000,     0.000,     0.000,     0.000,   1,1,0
   108,'1 ',1,   1,   1,   109.123,    37.166,     0.000,     0.000,     0.000,     0.000,   1,1,0
   109,'1 ',1,   1,   1,    58.743,    15.502,     0.000,     0.000,     0.000,     0.000,   1,1,0
   112,'1 ',1,   1,   1,    96.738,    22.892,     0.000,     0.000,     0.000,     0.000,   1,1,0
   113,'1 ',1,   1,   1,    73.938,     8.615,     0.000,     0.000,     0.000,     0.000,   1,1,0
   114,'1 ',1,   1,   1,     8.713,     2.433,     0.000,     0.000,     0.000,     0.000,   1,1,0
   115,'1 ',1,   1,   1,    47.321,    20.266,     0.000,     0.000,     0.000,     0.000,   1,1,0
   116,'1 ',1,   1,   1,    16.724,     3.674,     0.000,     0.000,     0.000,     0.000,   1,1,0
   117,'1 ',1,   1,   1,    44.917,     1.635,     0.000,     0.000,     0.000,     0.000,   1,1,0
   118,'1 ',1,   1,   1,    17.869,     4.168,     0.000,     0.000,     0.000,     0.000,   1,1,0
   119,'1 ',1,   1,   1,    58.016,    16.003,     0.000,     0.000,     0.000,     0.000,   1,1,0
   120,'1 ',1,   1,   1,    81.209,    55.374,     0.000,     0.000,     0.000,     0.000,   1,1,0
   123,'1 ',1,   1,   1,   111.235,    34.486,     0.000,     0.000,     0.000,     0.000,   1,1,0
   126,'1 ',1,   1,   1,    75.508,    28.500,     0.000,     0.000,     0.000,     0.000,   1,1,0
   127,'1 ',1,   1,   1,    37.104,     9.314,     0.000,     0.000,     0.000,     0.000,   1,1,0
   128,'1 ',1,   1,   1,    43.603,    10.494,     0.000,     0.000,     0.000,     0.000,   1,1,0
   130,'1 ',1,   1,   1,    95.302,    16.020,     0.000,     0.000,     0.000,     0.000,   1,1,0
   131,'1 ',1,   1,   1,    59.765,    31.797,     0.000,     0.000,     0.000,     0.000,   1,1,0
   133,'1 ',1,   1,   1,    92.959,    17.072,     0.000,     0.000,     0.000,     0.000,   1,1,0
   137,'1 ',1,   1,   1,   182.905,    23.148,     0.000,     0.000,     0.000,     0.000,   1,1,0
   138,'1 ',1,   1,   1,    48.389,     5.680,     0.000,     0.000,     0.000,     0.000,   1,1,0
   140,'1 ',1,   1,   1,   135.767,    81.276,     0.000,     0.000,     0.000,     0.000,   1,1,0
   144,'1 ',1,   1,   1,   102.740,    19.605,     0.000,     0.000,     0.000,     0.000,   1,1,0
   145,'1 ',1,   1,   1,    59.569,     6.904,     0.000,     0.000,     0.000,     0.000,   1,1,0
   146,'1 ',1,   1,   1,    49.087,    10.766,     0.000,     0.000,     0.000,     0.000,   1,1,0
   149,'1 ',1,   1,   1,   101.596,    23.747,     0.000,     0.000,     0.000,     0.000,   1,1,0
   150,'1 ',1,   1,   1,    71.219,     8.881,     0.000,     0.000,     0.000,     0.000,   1,1,0
   153,'1 ',1,   1,   1,    81.897,     9.532,     0.000,     0.000,     0.000,     0.000,   1,1,0
   154,'1 ',1,   1,   1,    86.984,    18.359,     0.000,     0.000,     0.000,     0.000,   1,1,0
   155,'1 ',1,   1,   1,    72.093,     3.199,     0.000,     0.000,     0.000,     0.000,   1,1,0
   156,'1 ',1,   1,   1,    60.907,    27.086,     0.000,     0.000,     0.000,     0.000,   1,1,0
   157,'1 ',1,   1,   1,    59.467,    15.561,     0.000,     0.000,     0.000,     0.000,   1,1,0
   158,'1 ',1,   1,   1,    83.374,    19.762,     0.000,     0.000,     0.000,     0.000,   1,1,0
   162,'1 ',1,   1,   1,    88.708,    12.851,     0.000,     0.000,     0.000,     0.000,   1,1,0
   163,'1 ',1,   1,   1,    64.467,    15.659,     0.000,     0.000,     0.000,     0.000,   1,1,0
   164,'1 ',1,   1,   1,    32.854,     8.732,     0.000,     0.000,     0.000,     0.000,   1,1,0
   167,'1 ',1,   1,   1,   175.674,   106.875,     0.000,     0.000,     0.000,     0.000,   1,1,0
   168,'1 ',1,   1,   1,    34.691,     6.600,     0.000,     0.000,     0.000,     0.000,   1,1,0
   169,'1 ',1,   1,   1,    58.773,    15.639,     0.000,     0.000,     0.000,     0.000,   1,1,0
   172,'1 ',1,   1,   1,    77.401,    18.278,     0.000,     0.000,     0.000,     0.000,   1,1,0
   173,'1 ',1,   1,   1,    65.899,    34.118,     0.000,     0.000,     0.000,     0.000,   1,1,0
   176,'1 ',1,   1,   1,    87.312,    10.243,     0.000,     0.000,     0.000,     0.000,   1,1,0
   177,'1 ',1,   1,   1,    42.814,    11.793,     0.000,     0.000,     0.000,     0.000,   1,1,0
   178,'1 ',1,   1,   1,    27.036,     5.963,     0.000,     0.000,     0.000,     0.000,   1,1,0
   179,'1 ',1,   1,   1,    58.089,     6.812,     0.000,     0.000,     0.000,     0.000,   1,1,0
   180,'1 ',1,   1,   1,    41.591,     6.004,     0.000,     0.000,     0.000,     0.000,   1,1,0
   183,'1 ',1,   1,   1,    98.860,    23.171,     0.000,     0.000,     0.000,     0.000,   1,1,0
   184,'1 ',1,   1,   1,    56.105,     3.949,     0.000,     0.000,     0.000,     0.000,   1,1,0
   185,'1 ',1,   1,   1,    39.982,     6.883,     0.000,     0.000,     0.000,     0.000,   1,1,0
   186,'1 ',1,   1,   1,    45.069,    10.649,     0.000,     0.000,     0.000,     0.000,   1,1,0
   187,'1 ',1,   1,   1,    45.214,    13.737,     0.000,     0.000,     0.000,     0.000,   1,1,0
   190,'1 ',1,   1,   1,    69.484,    15.589,     0.000,     0.000,     0.000,     0.000,   1,1,0
   192,'1 ',1,   1,   1,    61.054,    26.428,     0.000,     0.000,     0.000,     0.000,   1,1,0
   196,'1 ',1,   1,   1,    59.079,     9.844,     0.000,     0.000,     0.000,     0.000,   1,1,0
   197,'1 ',1,   1,   1,    53.161,    11.847,     0.000,     0.000,     0.000,     0.000,   1,1,0
   199,'1 ',1,   1,   1,    38.206,     5.145,     0.000,     0.000,     0.000,     0.000,   1,1,0
   200,'1 ',1,   1,   1,    47.248,    18.689,     0.000,     0.000,     0.000,     0.000,   1,1,0
   201,'1 ',1,   1,   1,    55.491,    11.961,     0.000,     0.000,     0.000,     0.000,   1,1,0
   204,'1 ',1,   1,   1,   106.816,    51.360,     0.000,     0.000,     0.000,     0.000,   1,1,0
   206,'1 ',1,   1,   1,    36.446,    14.972,     0.000,     0.000,     0.000,     0.000,   1,1,0
   209,'1 ',1,   1,   1,    46.034,    13.577,     0.000,     0.000,     0.000,     0.000,   1,1,0
   213,'1 ',1,   1,   1,    60.870,    23.778,     0.000,     0.000,     0.000,     0.000,   1,1,0
   214,'1 ',1,   1,   1,    39.893,     8.285,     0.000,     0.000,     0.000,     0.000,   1,1,0
   217,'1 ',1,   1,   1,   135.031,    40.173,     0.000,     0.000,     0.000,     0.000,   1,1,0
   218,'1 ',1,   1,   1,    34.954,     8.791,     0.000,     0.000,     0.000,     0.000,   1,1,0
   219,'1 ',1,   1,   1,    25.513,    15.868,     0.000,     0.000,     0.000,     0.000,   1,1,0
   220,'1 ',1,   1,   1,    58.410,    12.759,     0.000,     0.000,     0.000,     0.000,   1,1,0
   221,'1 ',1,   1,   1,    31.815,    12.612,     0.000,     0.000,     0.000,     0.000,   1,1,0
   223,'1 ',1,   1,   1,    79.766,    10.888,     0.000,     0.000,     0.000,     0.000,   1,1,0
   225,'1 ',1,   1,   1,   156.587,    44.683,     0.000,     0.000,     0.000,     0.000,   1,1,0
   226,'1 ',1,   1,   1,    62.025,    28.004,     0.000,     0.000,     0.000,     0.000,   1,1,0
   227,'1 ',1,   1,   1,    31.507,    11.932,     0.000,     0.000,     0.000,     0.000,   1,1,0
   229,'1 ',1,   1,   1,   110.753,    35.343,     0.000,     0.000,     0.000,     0.000,   1,1,0
   230,'1 ',1,   1,   1,     5.803,     1.679,     0.000,     0.000,     0.000,     0.000,   1,1,0
   234,'1 ',1,   1,   1,    69.447,     7.794,     0.000,     0.000,     0.000,     0.000,   1,1,0
   236,'1 ',1,   1,   1,    41.575,     7.772,     0.000,     0.000,     0.000,     0.000,   1,1,0
   237,'1 ',1,   1,   1,    50.582,    13.146,     0.000,     0.000,     0.000,     0.000,   1,1,0
   238,'1 ',1,   1,   1,    33.391,     7.861,     0.000,     0.000,     0.000,     0.000,   1,1,0
   239,'1 ',1,   1,   1,    60.371,     9.122,     0.000,     0.000,     0.000,     0.000,   1,1,0
   241,'1 ',1,   1,   1,   103.381,    12.859,     0.000,     0.000,     0.000,     0.000,   1,1,0
   242,'1 ',1,   1,   1,    41.333,     4.496,     0.000,     0.000,     0.000,     0.000,   1,1,0
   244,'1 ',1,   1,   1,    64.896,     6.322,     0.000,     0.000,     0.000,     0.000,   1,1,0
   245,'1 ',1,   1,   1,    68.934,     6.591,     0.000,     0.000,     0.000,     0.000,   1,1,0
   246,'1 ',1,   1,   1,    76.558,    42.964,     0.000,     0.000,     0.000,     0.000,   1,1,0
   247,'1 ',1,   1,   1,    89.854,    26.433,     0.000,     0.000,     0.000,     0.000,   1,1,0
   250,'1 ',1,   1,   1,   128.644,     4.185,     0.000,     0.000,     0.000,     0.000,   1,1,0
   253,'1 ',1,   1,   1,   118.015,    21.498,     0.000,     0.000,     0.000,     0.000,   1,1,0
   255,'1 ',1,   1,   1,    83.148,     2.895,     0.000,     0.000,     0.000,     0.000,   1,1,0
   259,'1 ',1,   1,   1,    82.175,    24.236,     0.000,     0.000,     0.000,     0.000,   1,1,0
   260,'1 ',1,   1,   1,    69.055,    19.133,     0.000,     0.000,     0.000,     0.000,   1,1,0
   262,'1 ',1,   1,   1,    87.977,    53.123,     0.000,     0.000,     0.000,     0.000,   1,1,0
   263,'1 ',1,   1,   1,    37.985,    13.408,     0.000,     0.000,     0.000,     0.000,   1,1,0
   265,'1 ',1,   1,   1,   105.789,    28.658,     0.000,     0.000,     0.000,     0.000,   1,1,0
   267,'1 ',1,   1,   1,    62.743,    20.848,     0.000,     0.000,     0.000,     0.000,   1,1,0
   270,'1 ',1,   1,   1,    78.633,    19.859,     0.000,     0.000,     0.000,     0.000,   1,1,0
   271,'1 ',1,   1,   1,    56.776,    15.915,     0.000,     0.000,     0.000,     0.000,   1,1,0
   274,'1 ',1,   1,   1,    88.781,    23.934,     0.000,     0.000,     0.000,     0.000,   1,1,0
   275,'1 ',1,   1,   1,    29.074,    10.023,     0.000,     0.000,     0.000,     0.000,   1,1,0
   276,'1 ',1,   1,   1,    30.013,     9.552,     0.000,     0.000,     0.000,     0.000,   1,1,0
   277,'1 ',1,   1,   1,    20.061,     2.093,     0.000,     0.000,     0.000,     0.000,   1,1,0
   281,'1 ',1,   1,   1,    43.796,    15.328,     0.000,     0.000,     0.000,     0.000,   1,1,0
   282,'1 ',1,   1,   1,    17.227,     5.306,     0.000,     0.000,     0.000,     0.000,   1,1,0
   283,'1 ',1,   1,   1,    23.753,     7.901,     0.000,     0.000,     0.000,     0.000,   1,1,0
   285,'1 ',1,   1,   1,    42.797,     4.421,     0.000,     0.000,     0.000,     0.000,   1,1,0
   286,'1 ',1,   1,   1,    78.272,    27.273,     0.000,     0.000,     0.000,     0.000,   1,1,0
   287,'1 ',1,   1,   1,    90.350,    13.296,     0.000,     0.000,     0.000,     0.000,   1,1,0
   288,'1 ',1,   1,   1,    44.818,     7.824,     0.000,     0.000,     0.000,     0.000,   1,1,0
   290,'1 ',1,   1,   1,    52.629,     3.735,     0.000,     0.000,     0.000,     0.000,   1,1,0
   294,'1 ',1,   1,   1,    42.242,     3.309,     0.000,     0.000,     0.000,     0.000,   1,1,0
   295,'1 ',1,   1,   1,    74.170,    26.491,     0.000,     0.000,     0.000,     0.000,   1,1,0
   298,'1 ',1,   1,   1,    77.478,    20.959,     0.000,     0.000,     0.000,     0.000,   1,1,0
   299,'1 ',1,   1,   1,    60.712,    21.645,     0.000,     0.000,     0.000,     0.000,   1,1,0
   300,'1 ',1,   1,   1,    92.395,    12.420,     0.000,     0.000,     0.000,     0.000,   1,1,0
   301,'1 ',1,   1,   1,    40.658,    13.175,     0.000,     0.000,     0.000,     0.000,   1,1,0
   302,'1 ',1,   1,   1,    42.269,     9.574,     0.000,     0.000,     0.000,     0.000,   1,1,0
   303,'1 ',1,   1,   1,    25.208,    12.970,     0.000,     0.000,     0.000,     0.000,   1,1,0
   305,'1 ',1,   1,   1,    15.044,     0.564,     0.000,     0.000,     0.000,     0.000,   1,1,0
   306,'1 ',1,   1,   1,    25.044,     1.709,     0.000,     0.000,     0.000,     0.000,   1,1,0
   307,'1 ',1,   1,   1,    39.921,     8.130,     0.000,     0.000,     0.000,     0.000,   1,1,0
   308,'1 ',1,   1,   1,    63.011,     4.107,     0.000,     0.000,     0.000,     0.000,   1,1,0
   311,'1 ',1,   1,   1,    75.128,    22.201,     0.000,     0.000,     0.000,     0.000,   1,1,0
   315,'1 ',1,   1,   1,    85.307,    31.954,     0.000,     0.000,     0.000,     0.000,   1,1,0
   318,'1 ',1,   1,   1,    55.010,    14.403,     0.000,     0.000,     0.000,     0.000,   1,1,0
   320,'1 ',1,   1,   1,    58.693,    19.258,     0.000,     0.000,     0.000,     0.000,   1,1,0
   321,'1 ',1,   1,   1,    35.398,    15.681,     0.000,     0.000,     0.000,     0.000,   1,1,0
   324,'1 ',1,   1,   1,    38.821,    14.684,     0.000,     0.000,     0.000,     0.000,   1,1,0
   327,'1 ',1,   1,   1,    42.104,     4.682,     0.000,     0.000,     0.000,     0.000,   1,1,0
   328,'1 ',1,   1,   1,    13.674,     1.317,     0.000,     0.000,     0.000,     0.000,   1,1,0
   329,'1 ',1,   1,   1,    12.776,     2.000,     0.000,     0.000,     0.000,     0.000,   1,1,0
   330,'1 ',1,   1,   1,    46.490,     7.966,     0.000,     0.000,     0.000,     0.000,   1,1,0
   333,'1 ',1,   1,   1,    66.993,     8.836,     0.000,     0.000,     0.000,     0.000,   1,1,0
   336,'1 ',1,   1,   1,   111.494,    12.924,     0.000,     0.000,     0.000,     0.000,   1,1,0
   338,'1 ',1,   1,   1,    82.363,    10.247,     0.000,     0.000,     0.000,     0.000,   1,1,0
   339,'1 ',1,   1,   1,    64.000,    10.932,     0.000,     0.000,     0.000,     0.000,   1,1,0
   340,'1 ',1,   1,   1,    73.038,    24.097,     0.000,     0.000,     0.000,     0.000,   1,1,0
   341,'1 ',1,   1,   1,    45.772,     7.055,     0.000,     0.000,     0.000,     0.000,   1,1,0
   344,'1 ',1,   1,   1,    56.059,    20.357,     0.000,     0.000,     0.000,     0.000,   1,1,0
   345,'1 ',1,   1,   1,    10.407,     3.562,     0.000,     0.000,     0.000,     0.000,   1,1,0
   346,'1 ',1,   1,   1,    10.990,     2.367,     0.000,     0.000,     0.000,     0.000,   1,1,0
   347,'1 ',1,   1,   1,    23.884,     7.817,     0.000,     0.000,     0.000,     0.000,   1,1,0
   350,'1 ',1,   1,   1,   101.445,    31.303,     0.000,     0.000,     0.000,     0.000,   1,1,0
...
0 / END OF LOAD DATA, BEGIN FIXED SHUNT DATA
0 / END OF FIXED SHUNT DATA, BEGIN GENERATOR DATA
   511,'1 ',   274.652,    61.470,   146.041,   -31.848,1.03600,     0,   286.920, 0.00000E+0, 1.00000E+0, 0.00000E+0, 0.00000E+0,1.00000,1,    1.0,   286.917,   111.868,   1,1.0000
   512,'1 ',   286.917,    98.700,   146.041,   -31.848,1.03600,     0,   286.920, 0.00000E+0, 1.00000E+0, 0.00000E+0, 0.00000E+0,1.00000,1,    1.0,   286.917,   136.713,   1,1.0000
   513,'1 ',   253.110,    92.718,   146.041,   -31.848,1.03600,     0,   286.920, 0.00000E+0, 1.00000E+0, 0.00000E+0, 0.00000E+0,1.00000,1,    1.0,   286.917,   117.880,   1,1.0000
   514,'1 ',   286.917,    91.860,   146.041,   -31.848,1.03600,     0,   286.920, 0.00000E+0, 1.00000E+0, 0.00000E+0, 0.00000E+0,1.00000,1,    1.0,   286.917,   119.916,   1,1.0000
   515,'1 ',   229.400,   101.366,   146.041,   -31.848,1.03600,     0,   286.920, 0.00000E+0, 1.00000E+0, 0.00000E+0, 0.00000E+0,1.00000,1,    1.0,   286.917,   143.131,   1,1.0000
   516,'1 ',   286.917,    63.668,   146.041,   -31.848,1.03600,     0,   286.920, 0.00000E+0, 1.00000E+0, 0.00000E+0, 0.00000E+0,1.00000,1,    1.0,   286.917,    65.487,   1,1.0000
   518,'1 ',    26.500,    13.488,    13.488,    -2.942,1.03360,     0,    26.500, 0.00000E+0, 1.00000E+0, 0.00000E+0, 0.00000E+0,1.00000,1,    1.0,    26.500,     8.564,   1,1.0000
   522,'1 ',   818.600,   268.567,   301.245,   -67.125,1.07250,     0,   818.600, 0.00000E+0, 1.00000E+0, 0.00000E+0, 0.00000E+0,1.00000,1,    1.0,   818.600,   393.254,   1,1.0000
   523,'1 ',   818.600,   266.837,   301.245,   -67.125,1.07500,     0,   818.600, 0.00000E+0, 1.00000E+0, 0.00000E+0, 0.00000E+0,1.00000,1,    1.0,   818.600,    92.398,   1,1.0000
   525,'1 ',     5.933,     0.000,     3.020,    -0.659,1.04200,     0,     5.930, 0.00000E+0, 1.00000E+0, 0.00000E+0, 0.00000E+0,1.00000,0,    1.0,     5.933,     1.300,   1,1.0000
   525,'2 ',     5.933,     0.000,     3.020,    -0.659,1.04200,     0,     5.930, 0.00000E+0, 1.00000E+0, 0.00000E+0, 0.00000E+0,1.00000,0,    1.0,     5.933,     1.833,   1,1.0000
   525,'3 ',     5.933,     0.000,     3.020,    -0.659,1.04200,     0,     5.930, 0.00000E+0, 1.00000E+0, 0.00000E+0, 0.00000E+0,1.00000,0,    1.0,     5.933,     2.076,   1,1.0000
   525,'4 ',     5.933,     0.000,     3.020,    -0.659,1.04200,     0,     5.930, 0.00000E+0, 1.00000E+0, 0.00000E+0, 0.00000E+0,1.00000,0,    1.0,     5.933,     1.712,   1,1.0000
   525,'5 ',     5.933,     0.000,     3.020,    -0.659,1.04200,     0,     5.930, 0.00000E+0, 1.00000E+0, 0.00000E+0, 0.00000E+0,1.00000,0,    1.0,     5.933,     1.580,   1,1.0000
   525,'6 ',     5.933,     0.000,     3.020,    -0.659,1.04200,     0,     5.930, 0.00000E+0, 1.00000E+0, 0.00000E+0, 0.00000E+0,1.00000,0,    1.0,     5.933,     1.676,   1,1.0000
   529,'1 ',   244.800,     0.000,   124.603,   -27.173,1.05578,     0,   244.800, 0.00000E+0, 1.00000E+0, 0.00000E+0, 0.00000E+0,1.00000,0,    1.0,   244.800,    40.619,   1,1.0000
   530,'1 ',   244.800,   102.859,   124.603,   -27.173,1.00450,     0,   244.800, 0.00000E+0, 1.00000E+0, 0.00000E+0, 0.00000E+0,1.00000,1,    1.0,   244.800,    50.102,   1,1.0000
   531,'1 ',   244.800,   124.603,   124.603,   -27.173,1.00391,     0,   244.800, 0.00000E+0, 1.00000E+0, 0.00000E+0, 0.00000E+0,1.00000,1,    1.0,   244.800,   103.321,   1,1.0000
   532,'1 ',   244.800,   110.175,   124.603,   -27.173,1.00450,     0,   244.800, 0.00000E+0, 1.00000E+0, 0.00000E+0, 0.00000E+0,1.00000,1,    1.0,   244.800,    92.537,   1,1.0000
   533,'1 ',   244.800,   100.463,   124.603,   -27.173,1.00450,     0,   244.800, 0.00000E+0, 1.00000E+0, 0.00000E+0, 0.00000E+0,1.00000,1,    1.0,   244.800,    82.618,   1,1.0000
   536,'1 ',   402.000,   -49.044,   187.332,   -49.044,1.03951,     0,   402.000, 0.00000E+0, 1.00000E+0, 0.00000E+0, 0.00000E+0,1.00000,1,    1.0,   402.000,   150.560,   1,1.0000
   537,'1 ',   402.000,   -49.044,   187.332,   -49.044,1.04218,     0,   402.000, 0.00000E+0, 1.00000E+0, 0.00000E+0, 0.00000E+0,1.00000,1,    1.0,   402.000,   171.138,   1,1.0000
   539,'1 ',     3.667,    -0.447,     1.709,    -0.447,1.05485,     0,     3.670, 0.00000E+0, 1.00000E+0, 0.00000E+0, 0.00000E+0,1.00000,1,    1.0,     3.667,     0.435,   1,1.0000
   539,'2 ',     3.667,    -0.447,     1.709,    -0.447,1.05485,     0,     3.670, 0.00000E+0, 1.00000E+0, 0.00000E+0, 0.00000E+0,1.00000,1,    1.0,     3.667,     1.280,   1,1.0000
   539,'3 ',     3.667,    -0.447,     1.709,    -0.447,1.05485,     0,     3.670, 0.00000E+0, 1.00000E+0, 0.00000E+0, 0.00000E+0,1.00000,1,    1.0,     3.667,     1.817,   1,1.0000
   539,'4 ',     3.667,    -0.447,     1.709,    -0.447,1.05485,     0,     3.670, 0.00000E+0, 1.00000E+0, 0.00000E+0, 0.00000E+0,1.00000,1,    1.0,     3.667,     0.899,   1,1.0000
   539,'5 ',     3.667,     0.000,     1.709,    -0.447,1.05485,     0,     3.670, 0.00000E+0, 1.00000E+0, 0.00000E+0, 0.00000E+0,1.00000,0,    1.0,     3.667,     1.289,   1,1.0000
   539,'6 ',     3.667,     0.000,     1.709,    -0.447,1.05485,     0,     3.670, 0.00000E+0, 1.00000E+0, 0.00000E+0, 0.00000E+0,1.00000,0,    1.0,     3.667,     1.159,   1,1.0000
   542,'1 ',   173.733,    88.430,    88.430,   -19.284,1.03352,     0,   173.730, 0.00000E+0, 1.00000E+0, 0.00000E+0, 0.00000E+0,1.00000,1,    1.0,   173.733,    56.291,   1,1.0000
   543,'1 ',   173.733,    88.430,    88.430,   -19.284,1.03004,     0,   173.730, 0.00000E+0, 1.00000E+0, 0.00000E+0, 0.00000E+0,1.00000,1,    1.0,   173.733,    50.048,   1,1.0000
   544,'1 ',   173.733,    88.430,    88.430,   -19.284,1.03087,     0,   173.730, 0.00000E+0, 1.00000E+0, 0.00000E+0, 0.00000E+0,1.00000,1,    1.0,   173.733,    80.656,   1,1.0000
   545,'1 ',   173.733,    88.430,    88.430,   -19.284,1.03460,     0,   173.730, 0.00000E+0, 1.00000E+0, 0.00000E+0, 0.00000E+0,1.00000,1,    1.0,   173.733,    73.088,   1,1.0000
   546,'1 ',   173.733,    88.430,    88.430,   -19.284,1.02819,     0,   173.730, 0.00000E+0, 1.00000E+0, 0.00000E+0, 0.00000E+0,1.00000,1,    1.0,   173.733,    59.116,   1,1.0000
   547,'1 ',   173.733,    88.430,    88.430,   -19.284,1.02962,     0,   173.730, 0.00000E+0, 1.00000E+0, 0.00000E+0, 0.00000E+0,1.00000,1,    1.0,   173.733,    49.273,   1,1.0000
   551,'1 ',  1080.000,   104.592,   397.440,   -88.560,1.04500,     0,  1080.000, 0.00000E+0, 1.00000E+0, 0.00000E+0, 0.00000E+0,1.00000,1,    1.0,  1080.000,   168.179,   1,1.0000
   552,'1 ',  1080.000,   110.680,   397.440,   -88.560,1.04500,     0,  1080.000, 0.00000E+0, 1.00000E+0, 0.00000E+0, 0.00000E+0,1.00000,1,    1.0,  1080.000,   172.722,   1,1.0000
   554,'1 ',    68.400,    34.816,    34.816,    -7.592,1.03447,     0,    68.400, 0.00000E+0, 1.00000E+0, 0.00000E+0, 0.00000E+0,1.00000,1,    1.0,    68.400,    31.465,   1,1.0000
   554,'2 ',    68.400,    34.816,    34.816,    -7.592,1.03447,     0,    68.400, 0.00000E+0, 1.00000E+0, 0.00000E+0, 0.00000E+0,1.00000,1,    1.0,    68.400,    18.691,   1,1.0000
   554,'3 ',    68.400,    34.816,    34.816,    -7.592,1.03447,     0,    68.400, 0.00000E+0, 1.00000E+0, 0.00000E+0, 0.00000E+0,1.00000,1,    1.0,    68.400,    19.594,   1,1.0000
   554,'4 ',    68.400,    34.816,    34.816,    -7.592,1.03447,     0,    68.400, 0.00000E+0, 1.00000E+0, 0.00000E+0, 0.00000E+0,1.00000,1,    1.0,    68.400,    27.758,   1,1.0000
   554,'5 ',    68.400,    34.816,    34.816,    -7.592,1.03447,     0,    68.400, 0.00000E+0, 1.00000E+0, 0.00000E+0, 0.00000E+0,1.00000,1,    1.0,    68.400,    26.860,   1,1.0000
   554,'6 ',    68.400,    34.816,    34.816,    -7.592,1.03447,     0,    68.400, 0.00000E+0, 1.00000E+0, 0.00000E+0, 0.00000E+0,1.00000,1,    1.0,    68.400,    13.872,   1,1.0000
   558,'1 ',   136.800,    69.631,    69.631,   -15.185,1.02327,     0,   136.800, 0.00000E+0, 1.00000E+0, 0.00000E+0, 0.00000E+0,1.00000,1,    1.0,   136.800,    14.056,   1,1.0000
   559,'1 ',   136.800,    69.631,    69.631,   -15.185,1.02534,     0,   136.800, 0.00000E+0, 1.00000E+0, 0.00000E+0, 0.00000E+0,1.00000,1,    1.0,   136.800,    64.405,   1,1.0000
   560,'1 ',   136.800,    69.631,    69.631,   -15.185,1.02412,     0,   136.800, 0.00000E+0, 1.00000E+0, 0.00000E+0, 0.00000E+0,1.00000,1,    1.0,   136.800,    41.032,   1,1.0000
   561,'1 ',   136.800,    69.631,    69.631,   -15.185,1.02698,     0,   136.800, 0.00000E+0, 1.00000E+0, 0.00000E+0, 0.00000E+0,1.00000,1,    1.0,   136.800,    28.648,   1,1.0000
   562,'1 ',   136.800,    69.631,    69.631,   -15.185,1.02499,     0,   136.800, 0.00000E+0, 1.00000E+0, 0.00000E+0, 0.00000E+0,1.00000,1,    1.0,   136.800,    20.963,   1,1.0000
   563,'1 ',   136.800,    69.631,    69.631,   -15.185,1.02642,     0,   136.800, 0.00000E+0, 1.00000E+0, 0.00000E+0, 0.00000E+0,1.00000,1,    1.0,   136.800,    36.541,   1,1.0000
   567,'1 ',   447.400,   325.402,   361.645,   -78.865,1.01800,     0,   710.500, 0.00000E+0, 1.00000E+0, 0.00000E+0, 0.00000E+0,1.00000,1,    1.0,   710.500,   213.037,   1,1.0000
   568,'1 ',   478.080,   348.687,   361.645,   -78.865,1.01800,     0,   710.500, 0.00000E+0, 1.00000E+0, 0.00000E+0, 0.00000E+0,1.00000,1,    1.0,   710.500,   129.441,   1,1.0000
   569,'1 ',   560.780,   321.659,   361.645,   -78.865,1.01800,     0,   710.500, 0.00000E+0, 1.00000E+0, 0.00000E+0, 0.00000E+0,1.00000,1,    1.0,   710.500,   336.192,   1,1.0000
   570,'1 ',   329.890,   329.665,   361.645,   -78.865,1.01800,     0,   710.500, 0.00000E+0, 1.00000E+0, 0.00000E+0, 0.00000E+0,1.00000,1,    1.0,   710.500,    76.150,   1,1.0000
   571,'1 ',   571.709,     0.000,   361.645,   -78.865,1.05297,     0,   710.500, 0.00000E+0, 1.00000E+0, 0.00000E+0, 0.00000E+0,1.00000,0,    1.0,   710.500,    73.471,   1,1.0000
   572,'1 ',   418.146,     0.000,   361.645,   -78.865,1.05297,     0,   710.500, 0.00000E+0, 1.00000E+0, 0.00000E+0, 0.00000E+0,1.00000,0,    1.0,   710.500,   216.649,   1,1.0000
   574,'1 ',   124.000,    10.371,    57.784,   -15.128,1.01800,     0,   124.000, 0.00000E+0, 1.00000E+0, 0.00000E+0, 0.00000E+0,1.00000,1,    1.0,   124.000,    57.005,   1,1.0000
   575,'1 ',   124.000,     9.892,    57.784,   -15.128,1.01800,     0,   124.000, 0.00000E+0, 1.00000E+0, 0.00000E+0, 0.00000E+0,1.00000,1,    1.0,   124.000,    47.600,   1,1.0000
   576,'1 ',   124.000,    10.471,    57.784,   -15.128,1.01800,     0,   124.000, 0.00000E+0, 1.00000E+0, 0.00000E+0, 0.00000E+0,1.00000,1,    1.0,   124.000,    50.185,   1,1.0000
   577,'1 ',   124.000,    11.995,    57.784,   -15.128,1.01800,     0,   124.000, 0.00000E+0, 1.00000E+0, 0.00000E+0, 0.00000E+0,1.00000,1,    1.0,   124.000,    12.700,   1,1.0000
   578,'1 ',   124.000,    12.891,    57.784,   -15.128,1.01800,     0,   124.000, 0.00000E+0, 1.00000E+0, 0.00000E+0, 0.00000E+0,1.00000,1,    1.0,   124.000,    17.706,   1,1.0000
   579,'1 ',   124.000,    13.805,    57.784,   -15.128,1.01800,     0,   124.000, 0.00000E+0, 1.00000E+0, 0.00000E+0, 0.00000E+0,1.00000,1,    1.0,   124.000,    36.442,   1,1.0000
   581,'1 ',    21.083,     9.825,     9.825,    -2.572,1.03859,     0,    21.080, 0.00000E+0, 1.00000E+0, 0.00000E+0, 0.00000E+0,1.00000,1,    1.0,    21.083,     5.483,   1,1.0000
   582,'1 ',    21.083,    -2.316,     9.825,    -2.572,1.04500,     0,    21.080, 0.00000E+0, 1.00000E+0, 0.00000E+0, 0.00000E+0,1.00000,1,    1.0,    21.083,     6.229,   1,1.0000
   582,'2 ',    21.083,    -2.316,     9.825,    -2.572,1.04500,     0,    21.080, 0.00000E+0, 1.00000E+0, 0.00000E+0, 0.00000E+0,1.00000,1,    1.0,    21.083,     6.254,   1,1.0000
   582,'3 ',    21.083,    -2.316,     9.825,    -2.572,1.04500,     0,    21.080, 0.00000E+0, 1.00000E+0, 0.00000E+0, 0.00000E+0,1.00000,1,    1.0,    21.083,     7.482,   1,1.0000
   582,'4 ',    21.083,    -2.316,     9.825,    -2.572,1.04500,     0,    21.080, 0.00000E+0, 1.00000E+0, 0.00000E+0, 0.00000E+0,1.00000,1,    1.0,    21.083,     4.317,   1,1.0000
   582,'5 ',    21.083,    -2.316,     9.825,    -2.572,1.04500,     0,    21.080, 0.00000E+0, 1.00000E+0, 0.00000E+0, 0.00000E+0,1.00000,1,    1.0,    21.083,     7.684,   1,1.0000
   587,'1 ',   181.000,    92.129,    92.129,   -20.091,1.02269,     0,   181.000, 0.00000E+0, 1.00000E+0, 0.00000E+0, 0.00000E+0,1.00000,1,    1.0,   181.000,    57.044,   1,1.0000
   588,'1 ',   157.830,    76.905,    92.129,   -20.091,1.01850,     0,   181.000, 0.00000E+0, 1.00000E+0, 0.00000E+0, 0.00000E+0,1.00000,1,    1.0,   181.000,    65.155,   1,1.0000
   590,'1 ',    15.700,     7.991,     7.991,    -1.743,1.04193,     0,    15.700, 0.00000E+0, 1.00000E+0, 0.00000E+0, 0.00000E+0,1.00000,1,    1.0,    15.700,     2.126,   1,1.0000
   590,'2 ',    15.700,     7.991,     7.991,    -1.743,1.04193,     0,    15.700, 0.00000E+0, 1.00000E+0, 0.00000E+0, 0.00000E+0,1.00000,1,    1.0,    15.700,     5.004,   1,1.0000
   594,'1 ',   323.750,   128.418,   164.789,   -35.936,1.02450,     0,   323.750, 0.00000E+0, 1.00000E+0, 0.00000E+0, 0.00000E+0,1.00000,1,    1.0,   323.750,   142.567,   1,1.0000
   595,'1 ',   323.750,     0.000,   164.789,   -35.936,1.04250,     0,   323.750, 0.00000E+0, 1.00000E+0, 0.00000E+0, 0.00000E+0,1.00000,0,    1.0,   323.750,    54.778,   1,1.0000
   596,'1 ',   323.750,   105.672,   164.789,   -35.936,1.02450,     0,   323.750, 0.00000E+0, 1.00000E+0, 0.00000E+0, 0.00000E+0,1.00000,1,    1.0,   323.750,   147.206,   1,1.0000
   597,'1 ',   323.750,    88.105,   164.789,   -35.936,1.02450,     0,   323.750, 0.00000E+0, 1.00000E+0, 0.00000E+0, 0.00000E+0,1.00000,1,    1.0,   323.750,    46.804,   1,1.0000
   599,'1 ',     6.800,     0.000,     3.169,    -0.830,1.03419,     0,     6.800, 0.00000E+0, 1.00000E+0, 0.00000E+0, 0.00000E+0,1.00000,0,    1.0,     6.800,     3.324,   1,1.0000
   599,'2 ',     6.800,     0.000,     3.169,    -0.830,1.03419,     0,     6.800, 0.00000E+0, 1.00000E+0, 0.00000E+0, 0.00000E+0,1.00000,0,    1.0,     6.800,     0.698,   1,1.0000
   599,'3 ',     6.800,     0.000,     3.169,    -0.830,1.03419,     0,     6.800, 0.00000E+0, 1.00000E+0, 0.00000E+0, 0.00000E+0,1.00000,0,    1.0,     6.800,     0.905,   1,1.0000
   599,'4 ',     6.800,     0.000,     3.169,    -0.830,1.03419,     0,     6.800, 0.00000E+0, 1.00000E+0, 0.00000E+0, 0.00000E+0,1.00000,0,    1.0,     6.800,     1.101,   1,1.0000
   599,'5 ',     6.800,     0.000,     3.169,    -0.830,1.03419,     0,     6.800, 0.00000E+0, 1.00000E+0, 0.00000E+0, 0.00000E+0,1.00000,0,    1.0,     6.800,     3.201,   1,1.0000
   599,'6 ',     6.800,     3.169,     3.169,    -0.830,1.03419,     0,     6.800, 0.00000E+0, 1.00000E+0, 0.00000E+0, 0.00000E+0,1.00000,1,    1.0,     6.800,     2.569,   1,1.0000
  1208,'1 ',    11.200,     0.000,     5.701,    -1.243,1.04514,     0,    11.200, 0.00000E+0, 1.00000E+0, 0.00000E+0, 0.00000E+0,1.00000,0,    1.0,    11.200,     2.558,   1,1.0000
  1208,'2 ',    11.200,     0.000,     5.701,    -1.243,1.04514,     0,    11.200, 0.00000E+0, 1.00000E+0, 0.00000E+0, 0.00000E+0,1.00000,0,    1.0,    11.200,     3.605,   1,1.0000
  1212,'1 ',   142.500,    72.532,    72.532,   -15.818,1.05922,     0,   142.500, 0.00000E+0, 1.00000E+0, 0.00000E+0, 0.00000E+0,1.00000,1,    1.0,   142.500,    40.985,   1,1.0000
  1213,'1 ',   142.500,    72.532,    72.532,   -15.818,1.05608,     0,   142.500, 0.00000E+0, 1.00000E+0, 0.00000E+0, 0.00000E+0,1.00000,1,    1.0,   142.500,    55.372,   1,1.0000
  1214,'1 ',   142.500,    71.045,    72.532,   -15.818,1.07250,     0,   142.500, 0.00000E+0, 1.00000E+0, 0.00000E+0, 0.00000E+0,1.00000,1,    1.0,   142.500,    30.813,   1,1.0000
  1216,'1 ',    87.000,    -9.657,    44.283,    -9.657,1.04729,     0,    87.000, 0.00000E+0, 1.00000E+0, 0.00000E+0, 0.00000E+0,1.00000,1,    1.0,    87.000,    27.249,   1,1.0000
  1216,'2 ',    87.000,    -9.657,    44.283,    -9.657,1.04729,     0,    87.000, 0.00000E+0, 1.00000E+0, 0.00000E+0, 0.00000E+0,1.00000,1,    1.0,    87.000,    17.194,   1,1.0000
  1219,'1 ',    84.200,    38.455,    39.237,   -10.272,1.04250,     0,    84.200, 0.00000E+0, 1.00000E+0, 0.00000E+0, 0.00000E+0,1.00000,1,    1.0,    84.200,    27.937,   1,1.0000
  1219,'2 ',    84.200,    38.455,    39.237,   -10.272,1.04250,     0,    84.200, 0.00000E+0, 1.00000E+0, 0.00000E+0, 0.00000E+0,1.00000,1,    1.0,    84.200,     9.300,   1,1.0000
  1219,'3 ',    84.200,    38.455,    39.237,   -10.272,1.04250,     0,    84.200, 0.00000E+0, 1.00000E+0, 0.00000E+0, 0.00000E+0,1.00000,1,    1.0,    84.200,    10.695,   1,1.0000
  1219,'4 ',    84.200,    38.455,    39.237,   -10.272,1.04250,     0,    84.200, 0.00000E+0, 1.00000E+0, 0.00000E+0, 0.00000E+0,1.00000,1,    1.0,    84.200,    23.640,   1,1.0000
  1219,'5 ',    84.200,    38.455,    39.237,   -10.272,1.04250,     0,    84.200, 0.00000E+0, 1.00000E+0, 0.00000E+0, 0.00000E+0,1.00000,1,    1.0,    84.200,    29.358,   1,1.0000
  1219,'6 ',    84.200,    38.455,    39.237,   -10.272,1.04250,     0,    84.200, 0.00000E+0, 1.00000E+0, 0.00000E+0, 0.00000E+0,1.00000,1,    1.0,    84.200,    26.019,   1,1.0000
  1226,'1 ',   198.880,   101.230,   101.230,   -22.076,1.01612,     0,   198.880, 0.00000E+0, 1.00000E+0, 0.00000E+0, 0.00000E+0,1.00000,1,    1.0,   198.880,    47.086,   1,1.0000
  1227,'1 ',   198.880,   101.230,   101.230,   -22.076,1.01760,     0,   198.880, 0.00000E+0, 1.00000E+0, 0.00000E+0, 0.00000E+0,1.00000,1,    1.0,   198.880,    56.121,   1,1.0000
  1228,'1 ',   198.880,   101.230,   101.230,   -22.076,1.01806,     0,   198.880, 0.00000E+0, 1.00000E+0, 0.00000E+0, 0.00000E+0,1.00000,1,    1.0,   198.880,    61.855,   1,1.0000
  1229,'1 ',   198.880,   101.230,   101.230,   -22.076,1.01966,     0,   198.880, 0.00000E+0, 1.00000E+0, 0.00000E+0, 0.00000E+0,1.00000,1,    1.0,   198.880,    72.249,   1,1.0000
  1230,'1 ',   198.880,   101.230,   101.230,   -22.076,1.01689,     0,   198.880, 0.00000E+0, 1.00000E+0, 0.00000E+0, 0.00000E+0,1.00000,1,    1.0,   198.880,    76.895,   1,1.0000
  1232,'1 ',     5.350,     0.000,     2.723,    -0.594,1.02541,     0,     5.350, 0.00000E+0, 1.00000E+0, 0.00000E+0, 0.00000E+0,1.00000,0,    1.0,     5.350,     2.222,   1,1.0000
  1233,'1 ',     5.350,     0.000,     2.723,    -0.594,1.04487,     0,     5.350, 0.00000E+0, 1.00000E+0, 0.00000E+0, 0.00000E+0,1.00000,0,    1.0,     5.350,     2.517,   1,1.0000
  1237,'1 ',   205.700,    86.823,   104.701,   -22.833,1.05850,     0,   205.700, 0.00000E+0, 1.00000E+0, 0.00000E+0, 0.00000E+0,1.00000,1,    1.0,   205.700,    53.667,   1,1.0000
  1238,'1 ',   205.700,    39.911,   104.701,   -22.833,1.05850,     0,   205.700, 0.00000E+0, 1.00000E+0, 0.00000E+0, 0.00000E+0,1.00000,1,    1.0,   205.700,    30.887,   1,1.0000
  1243,'1 ',   113.860,   101.495,   101.495,   -22.133,1.02090,     0,   199.400, 0.00000E+0, 1.00000E+0, 0.00000E+0, 0.00000E+0,1.00000,1,    1.0,   199.400,    92.481,   1,1.0000
  1244,'1 ',   180.263,   101.495,   101.495,   -22.133,1.02207,     0,   199.400, 0.00000E+0, 1.00000E+0, 0.00000E+0, 0.00000E+0,1.00000,1,    1.0,   199.400,    47.170,   1,1.0000
  1246,'1 ',    42.000,     0.000,    21.378,    -4.662,1.02267,     0,    42.000, 0.00000E+0, 1.00000E+0, 0.00000E+0, 0.00000E+0,1.00000,0,    1.0,    42.000,    17.993,   1,1.0000
  1251,'1 ',   180.400,    86.599,    91.824,   -20.024,1.04750,     0,   180.400, 0.00000E+0, 1.00000E+0, 0.00000E+0, 0.00000E+0,1.00000,1,    1.0,   180.400,    18.965,   1,1.0000
  1252,'1 ',   180.400,    91.824,    91.824,   -20.024,1.04919,     0,   180.400, 0.00000E+0, 1.00000E+0, 0.00000E+0, 0.00000E+0,1.00000,1,    1.0,   180.400,    28.596,   1,1.0000
  1253,'1 ',   180.400,    91.824,    91.824,   -20.024,1.04828,     0,   180.400, 0.00000E+0, 1.00000E+0, 0.00000E+0, 0.00000E+0,1.00000,1,    1.0,   180.400,    62.389,   1,1.0000
  1256,'1 ',   235.270,   123.861,   170.888,   -37.266,1.05400,     0,   335.730, 0.00000E+0, 1.00000E+0, 0.00000E+0, 0.00000E+0,1.00000,1,    1.0,   335.733,    84.582,   1,1.0000
  1257,'1 ',   253.150,    42.228,   170.888,   -37.266,1.05400,     0,   335.730, 0.00000E+0, 1.00000E+0, 0.00000E+0, 0.00000E+0,1.00000,1,    1.0,   335.733,   129.272,   1,1.0000
...